Version 4
SHEET 1 2232 680
WIRE 1216 -48 832 -48
WIRE 544 16 224 16
WIRE 832 16 832 -48
WIRE 496 80 -128 80
WIRE 896 80 496 80
WIRE 224 112 224 16
WIRE 1216 128 1216 -48
WIRE -128 144 -128 80
WIRE 64 144 64 128
WIRE 144 144 64 144
WIRE 416 144 400 144
WIRE 448 144 416 144
WIRE 944 144 944 96
WIRE 976 144 944 144
WIRE 992 144 976 144
WIRE 448 160 448 144
WIRE 544 160 544 16
WIRE 832 160 832 16
WIRE 944 160 944 144
WIRE 32 176 -16 176
WIRE 448 176 448 160
WIRE 1824 176 1488 176
WIRE 1872 176 1824 176
WIRE 144 192 144 144
WIRE 176 192 176 128
WIRE 1264 192 1264 144
WIRE 320 208 320 144
WIRE 320 208 224 208
WIRE 1264 208 1264 192
WIRE 1488 208 1472 208
WIRE 1712 208 1664 208
WIRE 1824 208 1824 176
WIRE 496 224 496 176
WIRE 496 224 416 224
WIRE 544 224 496 224
WIRE 608 224 544 224
WIRE 704 224 688 224
WIRE 832 224 784 224
WIRE 896 224 896 176
WIRE 896 224 832 224
WIRE 976 224 896 224
WIRE 1072 224 1072 144
WIRE 1216 224 1072 224
WIRE 32 240 32 208
WIRE 208 240 32 240
WIRE 496 240 496 224
WIRE 896 240 896 224
WIRE 1472 240 1472 208
WIRE -16 256 -16 176
WIRE -16 256 -128 256
WIRE 32 256 32 240
WIRE 64 256 32 256
WIRE 496 256 496 240
WIRE 896 256 896 240
WIRE 1984 256 1984 176
WIRE 1984 256 1792 256
WIRE 2016 256 1984 256
WIRE -288 288 -352 288
WIRE -272 288 -288 288
WIRE -128 288 -128 256
WIRE -128 288 -160 288
WIRE -112 288 -128 288
WIRE 32 288 0 288
WIRE 144 288 144 256
WIRE -352 304 -352 288
WIRE -352 304 -368 304
WIRE 400 320 384 320
WIRE 448 320 400 320
WIRE 944 320 944 272
WIRE 976 320 944 320
WIRE 992 320 976 320
WIRE 1664 320 1568 320
WIRE -64 336 -240 336
WIRE 144 336 96 336
WIRE 224 336 144 336
WIRE 1328 336 1216 336
WIRE 1392 336 1328 336
WIRE -288 352 -288 288
WIRE 128 352 48 352
WIRE 496 352 496 336
WIRE 896 352 896 336
WIRE 1568 352 1552 352
WIRE 1584 352 1568 352
WIRE 1792 352 1792 336
WIRE -48 368 -64 368
WIRE 1264 384 1264 352
WIRE 1344 384 1264 384
WIRE 1456 384 1456 336
WIRE 1456 400 1456 384
WIRE -48 416 -48 368
WIRE 32 416 -48 416
WIRE 176 416 176 352
WIRE 1264 416 1264 384
WIRE 1552 416 1552 352
WIRE 1552 416 1360 416
WIRE 1664 416 1664 320
WIRE 1712 416 1664 416
WIRE 304 432 304 320
WIRE 304 432 224 432
WIRE 1072 432 1072 320
WIRE 1216 432 1072 432
WIRE 1584 448 1584 432
WIRE 1584 448 1424 448
WIRE 1360 464 1360 416
WIRE 1424 480 1424 448
WIRE 1584 480 1536 480
WIRE 1712 480 1712 416
WIRE 1712 480 1696 480
WIRE 1728 480 1712 480
WIRE 1904 480 1840 480
WIRE 2016 480 2016 256
WIRE -288 496 -288 464
WIRE 128 528 128 352
WIRE 176 528 128 528
WIRE -240 560 -240 336
WIRE -224 560 -240 560
WIRE -64 560 -112 560
WIRE -240 608 -240 560
WIRE -240 608 -288 608
FLAG -128 224 0
FLAG 496 352 0
FLAG 896 352 0
FLAG 400 400 0
FLAG 976 400 0
FLAG 1792 352 0
FLAG -352 384 0
FLAG 1328 336 3.3
FLAG 160 16 3.3
FLAG 768 16 3.3
FLAG 720 480 0
FLAG 720 400 3.3
FLAG 144 336 3.3
FLAG 1360 528 0
FLAG 1472 304 0
FLAG 208 304 0
FLAG 32 480 0
SYMBOL ind 592 240 R270
WINDOW 0 32 56 VTop 2
WINDOW 3 5 56 VBottom 2
SYMATTR InstName L1
SYMATTR Value 20µ
SYMBOL res 800 208 R90
WINDOW 0 0 56 VBottom 2
WINDOW 3 32 56 VTop 2
SYMATTR InstName R1
SYMATTR Value 2
SYMBOL voltage -128 128 R0
WINDOW 123 0 0 Left 0
WINDOW 39 0 0 Left 0
SYMATTR InstName V1
SYMATTR Value 7.4
SYMBOL res 416 128 R90
WINDOW 0 0 56 VBottom 2
WINDOW 3 32 56 VTop 2
SYMATTR InstName R2
SYMATTR Value 100
SYMBOL res 400 128 R0
SYMATTR InstName R3
SYMATTR Value 1k
SYMBOL res 400 304 R90
WINDOW 0 0 56 VBottom 2
WINDOW 3 32 56 VTop 2
SYMATTR InstName R4
SYMATTR Value 100
SYMBOL res 384 304 R0
SYMATTR InstName R5
SYMATTR Value 1k
SYMBOL res 992 240 R180
WINDOW 0 36 76 Left 2
WINDOW 3 36 40 Left 2
SYMATTR InstName R6
SYMATTR Value 1k
SYMBOL res 976 160 R270
WINDOW 0 32 56 VTop 2
WINDOW 3 0 56 VBottom 2
SYMATTR InstName R8
SYMATTR Value 100
SYMBOL res 992 416 R180
WINDOW 0 36 76 Left 2
WINDOW 3 36 40 Left 2
SYMATTR InstName R7
SYMATTR Value 1k
SYMBOL res 976 336 R270
WINDOW 0 32 56 VTop 2
WINDOW 3 0 56 VBottom 2
SYMATTR InstName R9
SYMATTR Value 100
SYMBOL cap 528 160 R0
SYMATTR InstName C1
SYMATTR Value 10µ
SYMBOL cap 816 160 R0
SYMATTR InstName C2
SYMATTR Value 10µ
SYMBOL schottky 160 32 R270
WINDOW 0 32 32 VTop 2
WINDOW 3 0 32 VBottom 2
SYMATTR InstName D1
SYMATTR Value 1N5817
SYMATTR Description Diode
SYMATTR Type diode
SYMBOL schottky 768 32 R270
WINDOW 0 32 32 VTop 2
WINDOW 3 0 32 VBottom 2
SYMATTR InstName D2
SYMATTR Value 1N5817
SYMATTR Description Diode
SYMATTR Type diode
SYMBOL voltage 1792 240 R0
WINDOW 123 0 0 Left 0
WINDOW 39 0 0 Left 0
SYMATTR InstName V2
SYMATTR Value PULSE(0 3.3 0 0.1m 0.1m 1m 2.2m)
SYMBOL nmos 448 240 R0
SYMATTR InstName M5
SYMATTR Value AO6408
SYMBOL nmos 448 80 R0
SYMATTR InstName M8
SYMATTR Value AO6408
SYMBOL nmos 944 80 M0
SYMATTR InstName M6
SYMATTR Value AO6408
SYMBOL nmos 944 240 M0
SYMATTR InstName M7
SYMATTR Value AO6408
SYMBOL voltage -352 288 R0
WINDOW 123 0 0 Left 0
WINDOW 39 0 0 Left 0
SYMATTR InstName V4
SYMATTR Value PULSE(0 3.3 1.1m 0.1m 0.1m 1m 2.2m)
SYMBOL voltage 720 384 R0
WINDOW 123 0 0 Left 0
WINDOW 39 0 0 Left 0
SYMATTR InstName V5
SYMATTR Value 3.3
SYMBOL mylib\\74hc08 80 128 R0
SYMATTR InstName U1
SYMATTR SpiceLine VCC=3.3  SPEED=1.0  TRIPDT=1e-9
SYMBOL mylib\\74hc08 -16 288 R0
SYMATTR InstName U2
SYMATTR SpiceLine VCC=3.3  SPEED=1.0  TRIPDT=1e-9
SYMBOL mylib\\74hc08 1440 128 M0
SYMATTR InstName U3
SYMATTR SpiceLine VCC=3.3  SPEED=1.0  TRIPDT=1e-9
SYMBOL mylib\\74hc08 1520 272 M0
SYMATTR InstName U4
SYMATTR SpiceLine VCC=3.3  SPEED=1.0  TRIPDT=1e-9
SYMBOL mylib\\74hc14 -224 240 R0
SYMATTR InstName U5
SYMBOL mylib\\74hc14 -64 240 R0
SYMATTR InstName U6
SYMBOL mylib\\74hc14 80 240 R0
SYMATTR InstName U7
SYMBOL mylib\\74hc14 -240 400 R90
SYMATTR InstName U8
SYMBOL mylib\\74hc14 -240 544 R90
SYMATTR InstName U9
SYMBOL mylib\\74hc14 -176 512 R0
SYMATTR InstName U10
SYMBOL mylib\\74hc14 -112 512 R270
SYMATTR InstName U11
SYMBOL mylib\\74hc14 1616 256 R180
SYMATTR InstName U12
SYMBOL mylib\\74hc14 1776 256 R180
SYMATTR InstName U13
SYMBOL mylib\\74hc14 1936 224 R180
SYMATTR InstName U14
SYMBOL mylib\\74hc14 1968 528 R180
SYMATTR InstName U15
SYMBOL mylib\\74hc14 1792 528 R180
SYMATTR InstName U16
SYMBOL mylib\\74hc14 1648 528 R180
SYMATTR InstName U17
SYMBOL mylib\\74hc14 1488 528 R180
SYMATTR InstName U18
SYMBOL res 1568 192 R90
WINDOW 0 0 56 VBottom 2
WINDOW 3 32 56 VTop 2
SYMATTR InstName R10
SYMATTR Value 10k
SYMBOL res 1600 448 R180
WINDOW 0 36 76 Left 2
WINDOW 3 36 40 Left 2
SYMATTR InstName R11
SYMATTR Value 10k
SYMBOL res -48 464 R180
WINDOW 0 36 76 Left 2
WINDOW 3 36 40 Left 2
SYMATTR InstName R12
SYMATTR Value 10k
SYMBOL res 48 272 R270
WINDOW 0 32 56 VTop 2
WINDOW 3 0 56 VBottom 2
SYMATTR InstName R13
SYMATTR Value 10k
SYMBOL cap 48 480 R180
WINDOW 0 24 56 Left 2
WINDOW 3 24 8 Left 2
SYMATTR InstName C3
SYMATTR Value 10n
SYMBOL cap 224 304 R180
WINDOW 0 24 56 Left 2
WINDOW 3 24 8 Left 2
SYMATTR InstName C4
SYMATTR Value 10n
SYMBOL cap 1488 304 R180
WINDOW 0 24 56 Left 2
WINDOW 3 24 8 Left 2
SYMATTR InstName C5
SYMATTR Value 47n
SYMBOL cap 1376 528 R180
WINDOW 0 24 56 Left 2
WINDOW 3 24 8 Left 2
SYMATTR InstName C6
SYMATTR Value 47n
SYMBOL mylib\\74hc14 1328 240 R180
SYMATTR InstName U19
SYMATTR SpiceLine VCC=3.3  SPEED=1.0  TRIPDT=1e-9
SYMBOL mylib\\74hc14 1408 432 R180
SYMATTR InstName U20
SYMATTR SpiceLine VCC=3.3  SPEED=1.0  TRIPDT=1e-9
SYMBOL pmos 1264 432 R180
SYMATTR InstName M1
SYMATTR Value BSS84
SYMBOL pmos 1264 224 R180
SYMATTR InstName M2
SYMATTR Value BSS84
SYMBOL pmos 176 208 M180
SYMATTR InstName M3
SYMATTR Value BSS84
SYMBOL pmos 176 432 M180
SYMATTR InstName M4
SYMATTR Value BSS84
SYMBOL mylib\\74hc14 128 480 R270
SYMATTR InstName U21
SYMBOL mylib\\74hc14 112 80 R0
SYMATTR InstName U22
TEXT -160 456 Left 2 !.tran 20m
