Version 4
SHEET 1 2100 680
WIRE 1216 -48 832 -48
WIRE 544 16 224 16
WIRE 832 16 832 -48
WIRE 496 80 -128 80
WIRE 896 80 496 80
WIRE 224 112 224 16
WIRE 1216 128 1216 -48
WIRE -128 144 -128 80
WIRE 416 144 400 144
WIRE 448 144 416 144
WIRE 944 144 944 96
WIRE 976 144 944 144
WIRE 992 144 976 144
WIRE 448 160 448 144
WIRE 544 160 544 16
WIRE 832 160 832 16
WIRE 944 160 944 144
WIRE 448 176 448 160
WIRE 176 192 176 128
WIRE 176 192 -32 192
WIRE 320 208 320 144
WIRE 320 208 224 208
WIRE 1264 208 1264 144
WIRE 1520 208 1264 208
WIRE 496 224 496 176
WIRE 496 224 416 224
WIRE 544 224 496 224
WIRE 608 224 544 224
WIRE 704 224 688 224
WIRE 832 224 784 224
WIRE 896 224 896 176
WIRE 896 224 832 224
WIRE 976 224 896 224
WIRE 1072 224 1072 144
WIRE 1216 224 1072 224
WIRE 496 240 496 224
WIRE 896 240 896 224
WIRE 496 256 496 240
WIRE 896 256 896 240
WIRE -160 272 -176 272
WIRE -32 272 -32 192
WIRE -32 272 -160 272
WIRE 1520 272 1520 208
WIRE 1632 272 1520 272
WIRE 400 320 384 320
WIRE 448 320 400 320
WIRE 944 320 944 272
WIRE 976 320 944 320
WIRE 992 320 976 320
WIRE 144 336 96 336
WIRE 224 336 144 336
WIRE 1328 336 1216 336
WIRE 1392 336 1328 336
WIRE 496 352 496 336
WIRE 896 352 896 336
WIRE 1632 368 1632 352
WIRE -32 416 -32 272
WIRE 64 416 -32 416
WIRE 176 416 176 352
WIRE 176 416 128 416
WIRE 1264 416 1264 352
WIRE 1520 416 1520 272
WIRE 1520 416 1328 416
WIRE 304 432 304 320
WIRE 304 432 224 432
WIRE 1072 432 1072 320
WIRE 1216 432 1072 432
FLAG -128 224 0
FLAG 496 352 0
FLAG 896 352 0
FLAG 400 400 0
FLAG 976 400 0
FLAG 1632 368 0
FLAG 64 432 0
FLAG 1328 432 0
FLAG -160 352 0
FLAG 1328 336 3.3
FLAG 160 16 3.3
FLAG 768 16 3.3
FLAG 720 480 0
FLAG 720 400 3.3
FLAG 144 336 3.3
SYMBOL ind 592 240 R270
WINDOW 0 32 56 VTop 2
WINDOW 3 5 56 VBottom 2
SYMATTR InstName L1
SYMATTR Value 20µ
SYMBOL res 800 208 R90
WINDOW 0 0 56 VBottom 2
WINDOW 3 32 56 VTop 2
SYMATTR InstName R1
SYMATTR Value 2
SYMBOL voltage -128 128 R0
WINDOW 123 0 0 Left 0
WINDOW 39 0 0 Left 0
SYMATTR InstName V1
SYMATTR Value 7.4
SYMBOL res 416 128 R90
WINDOW 0 0 56 VBottom 2
WINDOW 3 32 56 VTop 2
SYMATTR InstName R2
SYMATTR Value 100
SYMBOL res 400 128 R0
SYMATTR InstName R3
SYMATTR Value 1k
SYMBOL res 400 304 R90
WINDOW 0 0 56 VBottom 2
WINDOW 3 32 56 VTop 2
SYMATTR InstName R4
SYMATTR Value 100
SYMBOL res 384 304 R0
SYMATTR InstName R5
SYMATTR Value 1k
SYMBOL res 992 240 R180
WINDOW 0 36 76 Left 2
WINDOW 3 36 40 Left 2
SYMATTR InstName R6
SYMATTR Value 1k
SYMBOL res 976 160 R270
WINDOW 0 32 56 VTop 2
WINDOW 3 0 56 VBottom 2
SYMATTR InstName R8
SYMATTR Value 100
SYMBOL res 992 416 R180
WINDOW 0 36 76 Left 2
WINDOW 3 36 40 Left 2
SYMATTR InstName R7
SYMATTR Value 1k
SYMBOL res 976 336 R270
WINDOW 0 32 56 VTop 2
WINDOW 3 0 56 VBottom 2
SYMATTR InstName R9
SYMATTR Value 100
SYMBOL cap 528 160 R0
SYMATTR InstName C1
SYMATTR Value 10µ
SYMBOL cap 816 160 R0
SYMATTR InstName C2
SYMATTR Value 10µ
SYMBOL schottky 160 32 R270
WINDOW 0 32 32 VTop 2
WINDOW 3 0 32 VBottom 2
SYMATTR InstName D1
SYMATTR Value 1N5817
SYMATTR Description Diode
SYMATTR Type diode
SYMBOL schottky 768 32 R270
WINDOW 0 32 32 VTop 2
WINDOW 3 0 32 VBottom 2
SYMATTR InstName D2
SYMATTR Value 1N5817
SYMATTR Description Diode
SYMATTR Type diode
SYMBOL voltage 1632 256 R0
WINDOW 123 0 0 Left 0
WINDOW 39 0 0 Left 0
SYMATTR InstName V2
SYMATTR Value PULSE(0 3.3 0 0.1m 0.1m 1m 2.2m)
SYMBOL nmos 448 240 R0
SYMATTR InstName M5
SYMATTR Value AO6408
SYMBOL nmos 448 80 R0
SYMATTR InstName M8
SYMATTR Value AO6408
SYMBOL pmos 176 208 M180
SYMATTR InstName M1
SYMATTR Value BSS84
SYMBOL pmos 1264 224 R180
SYMATTR InstName M3
SYMATTR Value BSS84
SYMBOL nmos 944 80 M0
SYMATTR InstName M6
SYMATTR Value AO6408
SYMBOL nmos 944 240 M0
SYMATTR InstName M7
SYMATTR Value AO6408
SYMBOL pmos 176 432 M180
SYMATTR InstName M2
SYMATTR Value BSS84
SYMBOL pmos 1264 432 R180
SYMATTR InstName M4
SYMATTR Value BSS84
SYMBOL Digital\\inv 64 352 R0
SYMATTR InstName A1
SYMATTR SpiceLine Vhigh=3.3
SYMBOL Digital\\inv 1328 352 M0
SYMATTR InstName A2
SYMATTR SpiceLine Vhigh=3.3
SYMBOL voltage -160 256 R0
WINDOW 123 0 0 Left 0
WINDOW 39 0 0 Left 0
SYMATTR InstName V4
SYMATTR Value PULSE(0 3.3 1.1m 0.1m 0.1m 1m 2.2m)
SYMBOL voltage 720 384 R0
WINDOW 123 0 0 Left 0
WINDOW 39 0 0 Left 0
SYMATTR InstName V5
SYMATTR Value 3.3
TEXT -162 456 Left 2 !.tran 200m
